psse/psse-converter/src/test/resources/five_bus_nodeBreaker_rev35.xiidm
<?xml version="1.0" encoding="UTF-8"?>
<iidm:network xmlns:iidm="http://www.powsybl.org/schema/iidm/1_17" xmlns:slt="http://www.powsybl.org/schema/iidm/ext/slack_terminal/1_5" id="five_bus_nodeBreaker_rev35" caseDate="2016-01-01T10:00:00.000+02:00" forecastDistance="0" sourceFormat="PSS/E" minimumValidationLevel="STEADY_STATE_HYPOTHESIS">
    <iidm:substation id="Sub1-3-4" name="STATION 1">
        <iidm:voltageLevel id="VL1" nominalV="138.0" topologyKind="NODE_BREAKER">
            <iidm:nodeBreakerTopology>
                <iidm:busbarSection id="VL1-Busbar-1" name="NB1" node="1"/>
                <iidm:busbarSection id="VL1-Busbar-2" name="NB2" node="2"/>
                <iidm:switch id="VL1-Sw-1-2-1 " name="Sw-BusBars" kind="BREAKER" open="false" node1="1" node2="2"/>
                <iidm:switch id="VL1-Sw-1-6-1 " name="Sw-LineDcToBus5" kind="BREAKER" open="false" node1="1" node2="6"/>
                <iidm:switch id="VL1-Sw-1-7-1 " name="Sw-Gen" kind="BREAKER" open="false" node1="1" node2="7"/>
                <iidm:switch id="VL1-Sw-2-3-1 " name="Sw-LineToBus2" kind="BREAKER" open="false" node1="2" node2="3"/>
                <iidm:switch id="VL1-Sw-2-4-1 " name="Sw-T2wToBus3" kind="BREAKER" open="false" node1="2" node2="4"/>
                <iidm:switch id="VL1-Sw-2-5-1 " name="Sw-T3wToBus3Bus4" kind="BREAKER" open="false" node1="2" node2="5"/>
                <iidm:bus v="138.0" angle="0.0" nodes="1,2,3,4,5,6,7"/>
            </iidm:nodeBreakerTopology>
            <iidm:generator id="B1-G1 " energySource="OTHER" minP="-10000.0" maxP="10000.0" targetP="232.392" localTargetQ="-16.549" node="7">
                <iidm:minMaxReactiveLimits minQ="0.0" maxQ="0.0"/>
                <iidm:voltageRegulation targetValue="146.28" mode="VOLTAGE" regulating="false">
                    <iidm:terminalRef id="VL1-Busbar-2"/>
                </iidm:voltageRegulation>
            </iidm:generator>
            <iidm:lccConverterStation id="LccConverter-1-EATL P1     " name="EATL P1     " lossFactor="0.0" powerFactor="0.7273804" node="6"/>
        </iidm:voltageLevel>
        <iidm:voltageLevel id="VL3" nominalV="45.0" topologyKind="NODE_BREAKER">
            <iidm:nodeBreakerTopology>
                <iidm:busbarSection id="VL3-Busbar-1" name="NB1" node="1"/>
                <iidm:busbarSection id="VL3-Busbar-2" name="NB2" node="2"/>
                <iidm:switch id="VL3-Sw-1-2-1 " name="Sw-BusBars" kind="BREAKER" open="false" node1="1" node2="2"/>
                <iidm:switch id="VL3-Sw-1-3-1 " name="Sw-T2w" kind="BREAKER" open="false" node1="1" node2="3"/>
                <iidm:switch id="VL3-Sw-1-4-1 " name="Sw-T3w" kind="BREAKER" open="false" node1="1" node2="4"/>
                <iidm:switch id="VL3-Sw-2-5-1 " name="Sw-Load" kind="BREAKER" open="false" node1="2" node2="5"/>
                <iidm:bus v="45.0" angle="0.0" nodes="1,2,3,4,5"/>
            </iidm:nodeBreakerTopology>
            <iidm:load id="B3-L1 " loadType="UNDEFINED" p0="94.2" q0="19.0" node="5"/>
        </iidm:voltageLevel>
        <iidm:voltageLevel id="VL4" nominalV="21.0" topologyKind="NODE_BREAKER">
            <iidm:nodeBreakerTopology>
                <iidm:busbarSection id="VL4-Busbar-1" name="NB1" node="1"/>
                <iidm:busbarSection id="VL4-Busbar-2" name="NB2" node="2"/>
                <iidm:switch id="VL4-Sw-1-2-1 " name="Sw-BusBars" kind="BREAKER" open="false" node1="1" node2="2"/>
                <iidm:switch id="VL4-Sw-1-3-1 " name="Sw-T3w" kind="BREAKER" open="false" node1="1" node2="3"/>
                <iidm:switch id="VL4-Sw-2-4-1 " name="Sw-Load" kind="BREAKER" open="false" node1="2" node2="4"/>
                <iidm:bus v="21.0" angle="0.0" nodes="1,2,3,4"/>
            </iidm:nodeBreakerTopology>
            <iidm:load id="B4-L1 " loadType="UNDEFINED" p0="47.8" q0="-3.9" node="4"/>
        </iidm:voltageLevel>
        <iidm:twoWindingsTransformer id="T-1-3-1 " name="2WT         " r="0.0" x="4.23468" ratedU1="138.0" ratedU2="45.0" voltageLevelId1="VL1" node1="4" voltageLevelId2="VL3" node2="3">
            <iidm:ratioTapChanger tapPosition="1" loadTapChangingCapabilities="true">
                <iidm:step g="-73.99" b="-73.99" rho="1.9607843137254901"/>
                <iidm:step g="-4.3515999999999995" b="-4.3515999999999995" rho="1.0224948875255624"/>
                <iidm:step g="1.0024999999999729" b="1.0024999999999729" rho="0.9950248756218907"/>
                <iidm:step g="125.0" b="125.0" rho="0.6666666666666666"/>
                <iidm:voltageRegulation mode="VOLTAGE" regulating="true" targetValue="45.225" targetDeadband="44.55">
                    <iidm:terminalRef id="VL3-Busbar-2"/>
                </iidm:voltageRegulation>
            </iidm:ratioTapChanger>
        </iidm:twoWindingsTransformer>
        <iidm:threeWindingsTransformer id="T-1-3-4-1 " name="3WT         " r1="367.48" x1="1.6384999999999997E-4" ratedU1="138.0" r2="2975.31" x2="0.0011793499999999998" ratedU2="45.0" r3="-352.33" x3="9.013500000000002E-4" ratedU3="21.0" ratedU0="1.0" voltageLevelId1="VL1" node1="5" voltageLevelId2="VL3" node2="4" voltageLevelId3="VL4" node3="3">
            <iidm:property name="v" value="1.0"/>
            <iidm:property name="angle" value="0.0"/>
            <iidm:ratioTapChanger1 tapPosition="0" loadTapChangingCapabilities="false">
                <iidm:step g="-4.3515999999999995" b="-4.3515999999999995" rho="1.0224948875255624"/>
            </iidm:ratioTapChanger1>
            <iidm:ratioTapChanger2 tapPosition="0" loadTapChangingCapabilities="false">
                <iidm:step rho="1.0121457489878543"/>
            </iidm:ratioTapChanger2>
            <iidm:ratioTapChanger3 tapPosition="1" loadTapChangingCapabilities="true">
                <iidm:step rho="1.9607843137254901"/>
                <iidm:step rho="1.002004008016032"/>
                <iidm:step rho="0.9950248756218907"/>
                <iidm:step rho="0.6666666666666666"/>
                <iidm:voltageRegulation mode="VOLTAGE" regulating="true" targetValue="21.105" targetDeadband="20.79">
                    <iidm:terminalRef id="VL4-Busbar-2"/>
                </iidm:voltageRegulation>
            </iidm:ratioTapChanger3>
        </iidm:threeWindingsTransformer>
    </iidm:substation>
    <iidm:substation id="Sub2" name="STATION 2">
        <iidm:voltageLevel id="VL2" nominalV="138.0" topologyKind="NODE_BREAKER">
            <iidm:nodeBreakerTopology>
                <iidm:busbarSection id="VL2-Busbar-1" name="NB1" node="1"/>
                <iidm:busbarSection id="VL2-Busbar-2" name="NB2" node="2"/>
                <iidm:switch id="VL2-Sw-1-2-1 " name="Sw-BusBars" kind="BREAKER" open="false" node1="1" node2="2"/>
                <iidm:switch id="VL2-Sw-1-3-1 " name="Sw-LineToBus1" kind="BREAKER" open="false" node1="1" node2="3"/>
                <iidm:switch id="VL2-Sw-1-4-1 " name="Sw-Load" kind="BREAKER" open="false" node1="1" node2="4"/>
                <iidm:switch id="VL2-Sw-2-5-1 " name="Sw-FixedShunt" kind="BREAKER" open="false" node1="2" node2="5"/>
                <iidm:bus v="138.0" angle="0.0" nodes="1,2,3,4,5"/>
            </iidm:nodeBreakerTopology>
            <iidm:load id="B2-L1 " loadType="UNDEFINED" p0="21.7" q0="12.7" node="4"/>
            <iidm:shuntCompensator id="B2-SH1 " sectionCount="1" node="5">
                <iidm:shuntLinearModel bPerSection="9.976895610165932E-4" gPerSection="0.0" maximumSectionCount="1"/>
            </iidm:shuntCompensator>
        </iidm:voltageLevel>
    </iidm:substation>
    <iidm:substation id="Sub5" name="STATION 5">
        <iidm:voltageLevel id="VL5" nominalV="138.0" topologyKind="NODE_BREAKER">
            <iidm:nodeBreakerTopology>
                <iidm:busbarSection id="VL5-Busbar-1" name="NB1" node="1"/>
                <iidm:busbarSection id="VL5-Busbar-2" name="NB2" node="2"/>
                <iidm:switch id="VL5-Sw-1-2-1 " name="Sw-BusBars" kind="BREAKER" open="false" node1="1" node2="2"/>
                <iidm:switch id="VL5-Sw-1-3-1 " name="Sw-DcLine" kind="BREAKER" open="false" node1="1" node2="3"/>
                <iidm:switch id="VL5-Sw-1-4-1 " name="Sw-Load" kind="BREAKER" open="false" node1="1" node2="4"/>
                <iidm:switch id="VL5-Sw-2-5-1 " name="Sw-SwitchedShunt" kind="BREAKER" open="false" node1="2" node2="5"/>
                <iidm:bus v="138.0" angle="0.0" nodes="1,2,3,4,5"/>
            </iidm:nodeBreakerTopology>
            <iidm:load id="B5-L1 " loadType="UNDEFINED" p0="7.6" q0="1.6" node="4"/>
            <iidm:shuntCompensator id="B5-SwSH1 " sectionCount="2" node="5">
                <iidm:shuntNonLinearModel>
                    <iidm:section b="0.0" g="0.0"/>
                    <iidm:section b="0.005250997689561016" g="0.0"/>
                </iidm:shuntNonLinearModel>
            </iidm:shuntCompensator>
            <iidm:lccConverterStation id="LccConverter-5-EATL P1     " name="EATL P1     " lossFactor="0.0" powerFactor="0.7183361" node="3"/>
        </iidm:voltageLevel>
    </iidm:substation>
    <iidm:line id="L-1-2-1 " r="3.6907272" x="11.2683348" b1="1.3862633900441084E-4" b2="1.3862633900441084E-4" voltageLevelId1="VL1" node1="3" voltageLevelId2="VL2" node2="3"/>
    <iidm:hvdcLine id="TwoTerminalDc-EATL P1     " name="EATL P1     " r="7.365" nominalV="500.0" convertersMode="SIDE_1_RECTIFIER_SIDE_2_INVERTER" activePowerSetpoint="0.0" maxP="0.0" converterStation1="LccConverter-1-EATL P1     " converterStation2="LccConverter-5-EATL P1     "/>
    <iidm:extension id="VL1">
        <slt:slackTerminal id="B1-G1 "/>
    </iidm:extension>
</iidm:network>
